reduced_networks/ieee123/57pct/dss/Branches.dss
! Radial Kron-equivalent series elements
new Reactor.kr_2_3 phases=3 bus1=150r.1.2.3 bus2=149.1.2.3 rmatrix=[1e-06 | 0 1e-06 | 0 0 1e-06] xmatrix=[-0 | -0 -0 | -0 -0 -0]
new Reactor.kr_3_4 phases=3 bus1=149.1.2.3 bus2=1.1.2.3 rmatrix=[0.0346666668 | 0.01181818199999999 0.03534848480000002 | 0.01162878799999999 0.01196969679999999 0.03496212119999999] xmatrix=[0.08166666680000007 | 0.03800757560000002 0.07940909080000001 | 0.0291590908 0.03209090919999998 0.08068939400000003]
new Reactor.kr_4_5 phases=1 bus1=1.3 bus2=3.3 rmatrix=[0.06293560599999999] xmatrix=[0.06380208324999999]
new Reactor.kr_4_6 phases=3 bus1=1.1.2.3 bus2=7.1.2.3 rmatrix=[0.02600000010000001 | 0.008863636500000008 0.0265113636 | 0.008721591000000001 0.008977272599999996 0.02622159090000002] xmatrix=[0.06125000009999999 | 0.02850568169999999 0.05955681809999999 | 0.02186931809999998 0.02406818189999998 0.06051704550000001]
new Reactor.kr_6_7 phases=3 bus1=7.1.2.3 bus2=8.1.2.3 rmatrix=[0.01733333339999999 | 0.005909090999999997 0.01767424239999999 | 0.005814393999999993 0.005984848399999993 0.01748106059999999] xmatrix=[0.04083333340000001 | 0.01900378780000001 0.03970454539999999 | 0.0145795454 0.01604545459999998 0.04034469700000001]
new Reactor.kr_7_8 phases=1 bus1=8.1 bus2=9.1 rmatrix=[0.05664204540000001] xmatrix=[0.05742187492500001]
new Reactor.kr_7_9 phases=3 bus1=8.1.2.3 bus2=13.1.2.3 rmatrix=[0.02600000010000001 | 0.008863636500000008 0.0265113636 | 0.008721591000000001 0.008977272599999996 0.02622159090000002] xmatrix=[0.06125000009999999 | 0.02850568169999999 0.05955681809999999 | 0.02186931809999998 0.02406818189999998 0.06051704550000001]
new Reactor.kr_9_12 phases=1 bus1=13.3 bus2=34.3 rmatrix=[0.03776136360000001] xmatrix=[0.03828124994999999]
new Reactor.kr_9_13 phases=3 bus1=13.1.2.3 bus2=18.1.2.3 rmatrix=[0.07290624989999997 | 0.02468749799999996 0.072109374975 | 0.02437500037499998 0.02398437524999995 0.07150000027499996] xmatrix=[0.163781249775 | 0.06618750022499997 0.1664218751250001 | 0.07839062467499995 0.06014062477499999 0.168437500275]
new Reactor.kr_9_52 phases=3 bus1=13.1.2.3 bus2=152.1.2.3 rmatrix=[1e-06 | 0 1e-06 | 0 0 1e-06] xmatrix=[-0 | -0 -0 | -0 -0 -0]
new Reactor.kr_10_11 phases=1 bus1=9r.1 bus2=14.1 rmatrix=[0.1069905302] xmatrix=[0.108463541525]
new Reactor.kr_13_14 phases=1 bus1=18.1 bus2=19.1 rmatrix=[0.06293560599999999] xmatrix=[0.06380208324999999]
new Reactor.kr_13_15 phases=3 bus1=18.1.2.3 bus2=23.1.2.3 rmatrix=[0.04860416574383439 | 0.0164583312294963 0.04807291476204863 | 0.01624999977387175 0.01598958275814145 0.04766666601767933] xmatrix=[0.1091874990175081 | 0.04412499932627314 0.1109479149717594 | 0.05226041585672261 0.04009374909603336 0.1122916660205471]
new Reactor.kr_13_51 phases=3 bus1=18.1.2.3 bus2=135.1.2.3 rmatrix=[1e-06 | 0 1e-06 | 0 0 1e-06] xmatrix=[-0 | -0 -0 | -0 -0 -0]
new Reactor.kr_15_16 phases=3 bus1=23.1.2.3 bus2=25.1.2.3 rmatrix=[0.02430208330000001 | 0.008229166000000003 0.02403645832500003 | 0.008125000125000012 0.007994791750000015 0.02383333342500002] xmatrix=[0.05459374992500002 | 0.02206250007499998 0.05547395837500003 | 0.02613020822500003 0.02004687492500002 0.05614583342500004]
new Reactor.kr_18_19 phases=3 bus1=35.1.2.3 bus2=42.1.2.3 rmatrix=[0.0433333329039801 | 0.01477272717606465 0.04418560539050113 | 0.01453598453765804 0.0149621205225761 0.04370265035697945] xmatrix=[0.102083332908029 | 0.04750946909110022 0.09926136291445944 | 0.03644886302789868 0.04011363598648712 0.1008617414220856]
new Reactor.kr_18_51 phases=3 bus1=35.1.2.3 bus2=135.1.2.3 rmatrix=[0.03277698862499999 | 0.01122159074999997 0.03313920449999999 | 0.01090198874999998 0.011079545625 0.03250000012499998] xmatrix=[0.07564630687499999 | 0.03008522737499997 0.074446022625 | 0.02733664762499998 0.035632102125 0.07656250012499996]
new Reactor.kr_19_20 phases=3 bus1=42.1.2.3 bus2=47.1.2.3 rmatrix=[0.03899999901668176 | 0.0132954542679838 0.03976704490112119 | 0.01308238605808863 0.01346590861439917 0.03933238587774485] xmatrix=[0.09187499904849925 | 0.04275852195759256 0.08933522662325788 | 0.03280397669779858 0.03610227252027756 0.0907755677920196]
new Reactor.kr_21_22 phases=3 bus1=52.1.2.3 bus2=53.1.2.3 rmatrix=[0.01733333339999999 | 0.005909090999999997 0.01767424239999999 | 0.005814393999999993 0.005984848399999993 0.01748106059999999] xmatrix=[0.04083333340000001 | 0.01900378780000001 0.03970454539999999 | 0.0145795454 0.01604545459999998 0.04034469700000001]
new Reactor.kr_21_52 phases=3 bus1=52.1.2.3 bus2=152.1.2.3 rmatrix=[0.0346666668 | 0.01181818199999999 0.03534848480000002 | 0.01162878799999999 0.01196969679999999 0.03496212119999999] xmatrix=[0.08166666680000007 | 0.03800757560000002 0.07940909080000001 | 0.0291590908 0.03209090919999998 0.08068939400000003]
new Reactor.kr_22_23 phases=3 bus1=53.1.2.3 bus2=57.1.2.3 rmatrix=[0.04142518826503573 | 0.01386837086372776 0.04137973378192644 | 0.01410748038751755 0.01408143892596616 0.04185558590600608] xmatrix=[0.09612405201028444 | 0.03739157120562856 0.09627367321365092 | 0.03719176080832889 0.04328503708549539 0.09469838897574408]
new Reactor.kr_23_24 phases=3 bus1=57.1.2.3 bus2=60.1.2.3 rmatrix=[0.06555397724999996 | 0.02180397749999999 0.06500000024999995 | 0.02244318149999996 0.02215909124999997 0.066278409] xmatrix=[0.15129261375 | 0.05467329525000002 0.15312500025 | 0.06017045475000001 0.07126420425000002 0.1488920452500001]
new Reactor.kr_24_25 phases=3 bus1=60.1.2.3 bus2=61.1.2.3 rmatrix=[0.04860416660000002 | 0.01625000025000001 0.04766666685 | 0.0164583331 0.0159895835 0.04807291664999996] xmatrix=[0.10918749985 | 0.05226041644999998 0.11229166685 | 0.04412500014999996 0.04009374984999995 0.1109479167499999]
new Reactor.kr_24_26 phases=3 bus1=60.1.2.3 bus2=62.1.2.3 rmatrix=[0.07201231050000002 | 0.0246117425 0.07258049250000001 | 0.02331439400000001 0.0246117425 0.07201231050000001] xmatrix=[0.03561079550000001 | 0.0131392045 0.03391098475000002 | 0.01021306825 0.0131392045 0.0356107955]
new Reactor.kr_24_54 phases=3 bus1=60.1.2.3 bus2=160.1.2.3 rmatrix=[1e-06 | 0 1e-06 | 0 0 1e-06] xmatrix=[-0 | -0 -0 | -0 -0 -0]
new Reactor.kr_25_55 phases=3 bus1=61.1.2.3 bus2=61s.1.2.3 rmatrix=[1e-06 | 0 1e-06 | 0 0 1e-06] xmatrix=[-0 | -0 -0 | -0 -0 -0]
new Reactor.kr_26_27 phases=3 bus1=62.1.2.3 bus2=64.1.2.3 rmatrix=[0.1512258315741111 | 0.05168464559709487 0.1524190138911825 | 0.04896021502573537 0.05168464559709492 0.151225831574111] xmatrix=[0.07478268623816534 | 0.02759233955343338 0.07121308429912215 | 0.02144745335873316 0.02759233955343343 0.07478268623816528]
new Reactor.kr_27_28 phases=3 bus1=64.1.2.3 bus2=65.1.2.3 rmatrix=[0.12242092785 | 0.04183996224999999 0.12338683725 | 0.03963446980000004 0.04183996225000005 0.12242092785] xmatrix=[0.06053835234999998 | 0.02233664765 0.05764867407500002 | 0.01736221602500002 0.02233664765000002 0.06053835235000001]
new Reactor.kr_29_30 phases=3 bus1=67.1.2.3 bus2=72.1.2.3 rmatrix=[0.02403645832499997 | 0.007994791749999983 0.02383333342499998 | 0.008229166549999976 0.008125000124999966 0.02430208329999999] xmatrix=[0.05547395837499997 | 0.02004687492499995 0.05614583342499992 | 0.02206250007499996 0.02613020822499992 0.05459374992499997]
new Reactor.kr_29_31 phases=3 bus1=67.1.2.3 bus2=97.1.2.3 rmatrix=[0.02185132574999998 | 0.007267992499999998 0.02166666675 | 0.007481060499999996 0.007386363749999991 0.02209280300000001] xmatrix=[0.05043087124999998 | 0.01822443174999998 0.05104166674999999 | 0.02005681824999998 0.02375473474999997 0.04963068174999999]
new Reactor.kr_29_32 phases=1 bus1=67.1 bus2=69.1 rmatrix=[0.1195776499634043] xmatrix=[0.1212239581553558]
new Reactor.kr_29_53 phases=3 bus1=67.1.2.3 bus2=160r.1.2.3 rmatrix=[0.03033333344999998 | 0.01017518949999999 0.03059185604999999 | 0.01034090924999999 0.01047348470000001 0.03092992419999999] xmatrix=[0.07145833344999998 | 0.02551420444999994 0.07060321974999993 | 0.03325662864999997 0.02807954555 0.06948295445]
new Reactor.kr_30_34 phases=1 bus1=72.3 bus2=73.3 rmatrix=[0.06922916659999999] xmatrix=[0.07018229157500001]
new Reactor.kr_30_35 phases=3 bus1=72.1.2.3 bus2=76.1.2.3 rmatrix=[0.0174810606 | 0.005814394000000004 0.0173333334 | 0.005984848399999998 0.005909091 0.01767424239999999] xmatrix=[0.040344697 | 0.01457954540000001 0.04083333340000001 | 0.01604545459999999 0.01900378780000001 0.03970454539999999]
new Reactor.kr_31_42 phases=3 bus1=97.1.2.3 bus2=197.1.2.3 rmatrix=[1e-06 | 0 1e-06 | 0 0 1e-06] xmatrix=[-0 | -0 -0 | -0 -0 -0]
new Reactor.kr_32_33 phases=1 bus1=69.1 bus2=71.1 rmatrix=[0.1510454514511982] xmatrix=[0.1531249997596775]
new Reactor.kr_34_36 phases=1 bus1=73.3 bus2=74.3 rmatrix=[0.08810984840000002] xmatrix=[0.08932291655000001]
new Reactor.kr_35_37 phases=3 bus1=76.1.2.3 bus2=80.1.2.3 rmatrix=[0.08449999433387627 | 0.02834516788698658 0.0852201643465411 | 0.02880681580956959 0.02917613307603495 0.08616192566652822] xmatrix=[0.1990624944262488 | 0.07107528083568691 0.1966803921024611 | 0.09264346182768583 0.07822158799068357 0.193559653213789]
new Reactor.kr_35_41 phases=3 bus1=76.1.2.3 bus2=87.1.2.3 rmatrix=[0.1001837061289467 | 0.03343276261816079 0.09999904715324701 | 0.034242421242529 0.03414772455250819 0.1016268876756481] xmatrix=[0.2330814337333664 | 0.08383238309752411 0.2336922292688303 | 0.09891761016191211 0.1026155266745066 0.2283011303704055]
new Reactor.kr_37_38 phases=3 bus1=80.1.2.3 bus2=81.1.2.3 rmatrix=[0.01516666672499999 | 0.005087594749999997 0.015295928025 | 0.005170454624999996 0.005236742350000005 0.0154649621] xmatrix=[0.03572916672499999 | 0.01275710222499998 0.03530160987499998 | 0.01662831432499998 0.01403977277500001 0.034741477225]
new Reactor.kr_38_39 phases=3 bus1=81.1.2.3 bus2=82.1.2.3 rmatrix=[0.02166666674999998 | 0.007267992499999989 0.02185132574999996 | 0.007386363749999996 0.00748106049999998 0.02209280300000001] xmatrix=[0.05104166674999996 | 0.01822443174999997 0.05043087124999995 | 0.02375473474999997 0.02005681824999998 0.04963068174999999]
new Reactor.kr_38_40 phases=1 bus1=81.3 bus2=84.3 rmatrix=[0.1699261362] xmatrix=[0.172265624775]
new Reactor.kr_42_43 phases=3 bus1=197.1.2.3 bus2=101.1.2.3 rmatrix=[0.02185132574999998 | 0.007267992499999998 0.02166666675 | 0.007481060499999996 0.007386363749999991 0.02209280300000001] xmatrix=[0.05043087124999998 | 0.01822443174999998 0.05104166674999999 | 0.02005681824999998 0.02375473474999997 0.04963068174999999]
new Reactor.kr_43_44 phases=3 bus1=101.1.2.3 bus2=105.1.2.3 rmatrix=[0.02403645832499997 | 0.007994791749999983 0.02383333342499998 | 0.008229166549999976 0.008125000124999966 0.02430208329999999] xmatrix=[0.05547395837499997 | 0.02004687492499995 0.05614583342499992 | 0.02206250007499996 0.02613020822499992 0.05459374992499997]
new Reactor.kr_43_45 phases=1 bus1=101.3 bus2=103.3 rmatrix=[0.1384583309883987] xmatrix=[0.1403645831197582]
new Reactor.kr_44_47 phases=1 bus1=105.2 bus2=107.2 rmatrix=[0.2013939335086063] xmatrix=[0.2041666663221748]
new Reactor.kr_44_48 phases=1 bus1=105.1 bus2=109.1 rmatrix=[0.1416908014286491] xmatrix=[0.1804038776324842]
new Reactor.kr_45_46 phases=1 bus1=103.3 bus2=104.3 rmatrix=[0.1762196968] xmatrix=[0.1786458331]
new Reactor.kr_48_49 phases=1 bus1=109.1 bus2=110.1 rmatrix=[0.07552272720000003] xmatrix=[0.07656249989999998]
new Reactor.kr_49_50 phases=1 bus1=110.1 bus2=113.1 rmatrix=[0.1636325732543622] xmatrix=[0.1658854164179253]
